*Heading
** Job name: Job-1 Model name: Model-1
** Generated by: Abaqus/CAE 6.14-4
*Preprint, echo=NO, model=NO, history=NO, contact=NO
**
** PARTS
**
*Part, name=Part-3
*Node
      1,   15.3744659,  -2.97261286,   1.37682199
      2,   17.6244659,  -2.97267008,   1.37725854
      3,   17.7494144,  -3.96412325,   1.50777042
      4,   17.1243954,  -4.36066008,   1.56005263
      5,    17.124445,  -3.36921501,   1.42952633
      6,   15.2494144,  -3.96405959,   1.50728536
      7,   15.8743944,  -4.36062813,   1.55981004
      8,    15.874445,  -3.36918306,   1.42928386
      9,   16.9994946,  -2.41741967,   1.30423558
     10,   16.4995155,  -1.98115087,   1.24686134
     11,   16.4997692,  -1.98092997, -0.0557276532
     12,         16.5,  -1.98072791,  -1.24759424
     13,   17.4997654,  -1.09970486, 0.0768209919
     14,   17.4995613,  -1.09993279,   1.13072336
     15,   18.4996052,  -0.21871458,   1.01458538
     16,    19.499651,    0.6625036,  0.898447454
     17,   19.9379883,     0.661394,  0.898539484
     18,   18.4997826, -0.218465984,  0.105836205
     19,         18.5, -0.218159243,  -1.01554763
     20,   19.9383373,  0.662044525, -0.899666607
** ... 311 like lines cut
*Element, type=B33
1, 1, 2
2, 3, 2
3, 4, 3
4, 5, 4
5, 3, 5
6, 6, 1
7, 7, 6
8, 8, 7
 9, 6, 8
10, 2, 5
11, 9, 2
12, 10,  9
13, 11, 10
14, 12, 11
15, 12, 13
16, 13, 14
17, 14, 15
18, 15, 16
19, 17, 16
20, 15, 17
** ... 812 like lines cut
*Nset, nset=Wire-1-Set-1
 172, 175, 250, 251
*Elset, elset=Wire-1-Set-1
 546, 551, 709
*Nset, nset=Wire-2-Set-1
 114, 115, 116, 117, 118, 119, 120, 121, 169, 172, 174, 180, 181
*Elset, elset=Wire-2-Set-1
 231, 233, 234, 238, 240, 367, 377, 381, 383, 550, 555, 564
*Nset, nset=Wire-3-Set-1
 155, 166, 167, 169, 178, 240
*Elset, elset=Wire-3-Set-1
 348, 391, 511, 552, 704
*Nset, nset=Wire-4-Set-1
 157, 168, 173, 218, 248
*Elset, elset=Wire-4-Set-1
 483, 484, 543, 554
*Nset, nset=Wire-5-Set-1
 118, 173
*Elset, elset=Wire-5-Set-1
 365,
*Nset, nset=Wire-6-Set-1
 112, 113, 153, 159, 160
*Elset, elset=Wire-6-Set-1
 229, 338, 339, 480
*Nset, nset=Wire-7-Set-1
  21,  53,  54,  57,  58,  61,  62, 109, 110, 115
*Elset, elset=Wire-7-Set-1
  85,  94,  98, 103, 116, 117, 225, 242, 364
*Nset, nset=Wire-8-Set-2
  54,  56,  59,  60,  63,  64, 108, 111, 113
*Elset, elset=Wire-8-Set-2
 100, 107, 113, 114, 219, 244, 250, 251
*Nset, nset=Wire-9-Set-2
   2,  17,  20,  23,  24,  25,  48,  49,  50,  52,  76, 107
*Elset, elset=Wire-9-Set-2
  29,  75,  81, 108, 209, 211, 215, 289
*Nset, nset=Wire-10-Set-3
  2, 17, 20, 23, 24, 25, 48, 49, 50, 52, 53, 76
*Elset, elset=Wire-10-Set-3
  28,  76,  82,  90, 110, 111, 210, 214
*Nset, nset=Wire-11-Set-1
 10, 11, 12, 13, 14, 15, 16, 18, 19, 22, 26, 55
*Elset, elset=Wire-11-Set-1
 13, 14, 16, 21, 22, 47, 92, 93
*Nset, nset=Wire-12-Set-1
 10, 12, 13, 14, 15, 16, 18, 19, 22, 26, 53, 55
*Elset, elset=Wire-12-Set-1
 15, 32, 33, 48, 84, 87, 88, 91
*Nset, nset=Wire-13-Set-3
   2,  28,  65,  66,  67,  68,  69,  71, 129, 213, 214, 215, 253, 255, 257, 261
 263, 284, 296, 298, 318, 319, 320, 321, 322
*Elset, elset=Wire-13-Set-3
  37, 122, 123, 124, 125, 138, 265, 266, 461, 464, 467, 643, 648, 649, 720, 725
 781, 786, 788, 790, 792, 795, 816
*Nset, nset=Wire-14-Set-2
  27,  50,  65,  69,  70,  73, 123, 125, 128, 147, 184, 212, 214, 255, 256, 257
 258,
*Elset, elset=Wire-14-Set-2
 121, 126, 130, 131, 255, 264, 304, 395, 462, 465, 478, 570, 571, 572, 642, 645
*Nset, nset=Wire-15-Set-2
   3,  27,  28,  66,  68,  70,  71,  72,  88, 123, 124, 128, 146, 184, 185, 212
 213, 215, 254, 256, 258, 259, 263, 284, 296, 298, 318, 319, 320, 321, 322
*Elset, elset=Wire-15-Set-2
  35,  36, 127, 128, 129, 132, 173, 254, 263, 305, 394, 404, 457, 459, 460, 463
 466, 573, 644, 717, 719, 721, 731, 769, 782, 787, 789, 791, 793, 807
*Nset, nset=Wire-16-Set-1
 301, 302, 319, 322, 325, 331
*Elset, elset=Wire-16-Set-1
 796, 818, 819, 826
*Nset, nset=Wire-17-Set-2
 263, 300, 301, 318, 326, 331
*Elset, elset=Wire-17-Set-2
 729, 730, 825, 832
*Nset, nset=Wire-18-Set-1
   1,   2,  39,  50, 210, 264, 308, 317
*Elset, elset=Wire-18-Set-1
   1, 167, 768, 822
*Nset, nset=Set-28
   1,   2,   3,   4,   5,   6,   7,   8,   9,  10,  14,  15,  16,  17,  25,  29
  30,  33,  34,  46,  48,  54,  58,  59,  62,  63,  64,  72,  73,  74,  75,  78
  97,  98,  99, 100, 101, 102, 103, 104, 105, 106, 110, 111, 112, 115, 116, 118
 119, 122, 129, 130, 131, 134, 144, 145, 146, 147, 152, 153, 154, 155, 167, 168
 175, 176, 177, 178, 179, 180, 181, 188, 190, 191, 193, 194, 197, 205, 206, 207
 208, 209, 210, 211, 217, 219, 220, 221, 222, 223, 224, 225, 227, 230, 231, 232
 237, 238, 239, 245, 248, 251, 252, 259, 260, 261, 262, 263, 264, 267, 268, 269
 277, 278, 280, 281, 283, 285, 286, 287, 288, 293, 297, 299, 300, 302, 303, 304
 314, 315
*Elset, elset=Set-28
   1,   2,   3,   4,   5,   6,   7,   8,   9,  10,  11,  12,  17,  18,  19,  20
  30,  31,  38,  39,  40,  41,  42,  49,  50,  51,  65,  69,  70,  71,  72,  73
  74,  80,  83,  86,  99, 104, 105, 106, 112, 115, 118, 119, 120, 133, 134, 135
 136, 137, 139, 140, 145, 149, 192, 193, 194, 195, 196, 197, 198, 199, 200, 201
 202, 203, 204, 205, 206, 207, 208, 218, 226, 227, 228, 232, 235, 236, 237, 241
 245, 246, 247, 248, 249, 252, 267, 268, 269, 270, 271, 272, 273, 274, 275, 278
 310, 312, 313, 314, 315, 316, 317, 318, 330, 331, 332, 333, 349, 350, 368, 369
 370, 371, 372, 373, 374, 375, 376, 382, 389, 390, 405, 406, 407, 409, 412, 415
 416, 423, 428, 429, 430, 432, 447, 448, 449, 450, 451, 452, 453, 454, 458, 474
 475, 479, 485, 486, 487, 488, 489, 490, 491, 492, 493, 499, 500, 501, 507, 508
 509, 510, 514, 515, 530, 531, 541, 542, 547, 548, 549, 553, 558, 559, 560, 561
 562, 563, 565, 574, 575, 576, 577, 578, 579, 580, 581, 583, 584, 585, 595, 596
 597, 598, 602, 603, 604, 605, 606, 627, 628, 629, 631, 632, 633, 637, 638, 639
 640, 646, 647, 651, 652, 653, 654, 659, 660, 661, 662, 664, 665, 666, 667, 668
 669, 683, 685, 690, 691, 696, 699, 700, 705, 706, 710, 722, 723, 724, 726, 727
 728, 732, 733, 734, 735, 738, 740, 741, 742, 750, 765, 768, 770, 771, 772, 773
 774, 775, 776, 779, 794, 797
*Nset, nset=Set-29
  12,  19,  20,  21,  22,  23,  26,  32,  36,  37,  38,  39,  40,  41,  50,  51
  56,  57,  60,  61,  67,  76,  80,  81,  83,  85,  86,  87,  88,  89,  92,  93
  94,  95,  96, 108, 109, 113, 114, 117, 120, 121, 124, 125, 126, 127, 132, 138
 139, 140, 141, 142, 156, 157, 158, 159, 160, 161, 162, 163, 164, 165, 166, 169
 170, 171, 172, 173, 174, 182, 183, 185, 186, 187, 189, 192, 195, 196, 199, 200
 201, 218, 226, 228, 229, 233, 234, 235, 236, 240, 241, 242, 243, 244, 246, 247
 249, 250, 253, 254, 255, 265, 266, 270, 271, 272, 273, 274, 275, 289, 290, 291
 292, 294, 295, 305, 306, 307, 308, 309, 316, 317, 318, 323, 324, 325, 326, 327
 328, 329
*Elset, elset=Set-29
  23,  24,  25,  26,  27,  34,  45,  46,  54,  55,  56,  57,  58,  59,  77,  78
  79,  89,  95,  96,  97, 101, 102, 109, 143, 144, 148, 154, 157, 158, 159, 161
 167, 168, 169, 170, 171, 172, 175, 176, 180, 181, 182, 183, 184, 185, 186, 187
 212, 213, 216, 217, 220, 221, 222, 223, 224, 230, 239, 243, 253, 256, 257, 258
 259, 260, 261, 262, 277, 280, 285, 286, 288, 290, 291, 292, 293, 299, 300, 301
 302, 303, 306, 307, 308, 309, 328, 329, 335, 336, 337, 340, 341, 342, 343, 344
 345, 346, 347, 351, 352, 353, 354, 355, 356, 357, 358, 359, 360, 361, 362, 363
 366, 378, 379, 380, 384, 385, 386, 387, 388, 392, 393, 396, 397, 398, 399, 400
 402, 403, 419, 420, 421, 425, 426, 440, 441, 442, 455, 456, 472, 481, 482, 497
 503, 504, 505, 512, 513, 516, 518, 519, 520, 521, 522, 523, 524, 525, 527, 528
 533, 534, 535, 536, 537, 539, 540, 544, 545, 556, 557, 566, 567, 568, 569, 582
 587, 588, 590, 591, 592, 593, 600, 608, 609, 610, 611, 612, 616, 617, 618, 619
 620, 621, 623, 641, 656, 657, 658, 670, 671, 672, 673, 674, 675, 676, 679, 680
 681, 686, 688, 692, 693, 694, 695, 698, 701, 702, 703, 707, 708, 711, 712, 713
 714, 715, 716, 718, 736, 744, 746, 747, 748, 754, 755, 756, 778, 780, 783, 784
 785, 798, 801, 802, 803, 804, 805, 806, 808, 809, 810, 811, 812, 815, 817, 820
 821, 822, 823, 824, 827, 831
*Nset, nset=Set-30
   3,  27,  28,  65,  66,  67,  68,  69,  70,  71,  72,  73,  88, 123, 124, 125
 128, 129, 146, 147, 184, 185, 212, 213, 214, 215, 253, 254, 255, 256, 257, 258
 259, 261, 263, 284, 296, 298, 300, 301, 302, 318, 319, 320, 321, 322, 325, 326
 331,
*Elset, elset=Set-30
  35,  36, 121, 122, 123, 124, 125, 126, 127, 128, 129, 130, 131, 132, 138, 173
 254, 255, 263, 264, 265, 266, 304, 305, 394, 395, 404, 457, 459, 460, 461, 462
 463, 464, 465, 466, 467, 570, 571, 572, 573, 642, 643, 644, 645, 648, 649, 717
 719, 720, 721, 725, 729, 730, 731, 769, 781, 782, 786, 787, 788, 789, 790, 791
 792, 793, 795, 796, 807, 816, 818, 819, 825, 826, 832
*Nset, nset=Set-31
   2,   3,  27,  28,  50,  65,  66,  67,  68,  69,  70,  71,  72,  73,  88, 123
 124, 125, 128, 129, 146, 147, 184, 185, 212, 213, 214, 215, 253, 254, 255, 256
 257, 258, 259, 261, 263, 284, 296, 298, 300, 301, 302, 318, 319, 320, 321, 322
 325, 326, 331
*Elset, elset=Set-31
  35,  36,  37, 121, 122, 123, 124, 125, 126, 127, 128, 129, 130, 131, 132, 138
 173, 254, 255, 263, 264, 265, 266, 304, 305, 394, 395, 404, 457, 459, 460, 461
 462, 463, 464, 465, 466, 467, 478, 570, 571, 572, 573, 642, 643, 644, 645, 648
 649, 717, 719, 720, 721, 725, 729, 730, 731, 769, 781, 782, 786, 787, 788, 789
 790, 791, 792, 793, 795, 796, 807, 816, 818, 819, 825, 826, 832
*Nset, nset=Set-32
   1,   6,  39,  40,  41,  42,  43,  44,  45,  46,  47,  91,  92,  93, 100, 101
 102, 106, 135, 136, 137, 138, 143, 148, 149, 150, 151, 198, 199, 200, 201, 202
 203, 204, 205, 207, 209, 216, 276, 279, 281, 282, 283, 309, 310, 311, 312, 313
 328, 329, 330
*Elset, elset=Set-32
  60,  61,  62,  63,  64,  66,  67,  68, 166, 174, 179, 188, 189, 190, 191, 294
 295, 296, 297, 298, 311, 319, 320, 321, 322, 323, 324, 325, 326, 327, 401, 433
 434, 435, 436, 437, 438, 439, 443, 444, 445, 446, 468, 469, 470, 471, 473, 476
 477, 622, 624, 625, 626, 630, 634, 635, 636, 650, 752, 753, 757, 758, 759, 760
 761, 762, 763, 764, 766, 767, 799, 800, 813, 814, 828, 829, 830
*Nset, nset=Set-33
   2,  17,  20,  23,  24,  25,  48,  49,  50,  52,  53,  76, 107
*Elset, elset=Set-33
  28,  29,  75,  76,  81,  82,  90, 108, 110, 111, 209, 210, 211, 214, 215, 289
*Nset, nset=Set-34
   1,  34,  35,  36,  38,  39,  77,  78,  79,  80,  90, 131, 133
*Elset, elset=Set-34
  52,  53, 146, 147, 150, 151, 152, 153, 164, 165, 177, 178, 276, 279, 281, 408
*Nset, nset=Set-35
   2,  17,  20,  23,  24,  25,  48,  49,  50,  52,  53,  76, 107
*Elset, elset=Set-35
  28,  29,  75,  76,  81,  82,  90, 108, 110, 111, 209, 210, 211, 214, 215, 289
*Nset, nset=Set-36
 10, 11, 12, 13, 14, 15, 16, 18, 19, 22, 26, 53, 55
*Elset, elset=Set-36
 13, 14, 15, 16, 21, 22, 32, 33, 47, 48, 84, 87, 88, 91, 92, 93
*Nset, nset=Set-37
  10,  12,  31,  33,  37,  81,  82,  83,  84, 130, 133, 134
*Elset, elset=Set-37
  43,  44, 141, 142, 155, 156, 160, 162, 163, 282, 283, 284, 287, 589
*Nset, nset=Set-38
  21,  53,  54,  56,  59,  60,  63,  64, 108, 113, 132, 133, 188, 189, 190, 194
 195, 197, 236, 265
*Elset, elset=Set-38
  85,  94, 100, 107, 113, 114, 219, 250, 251, 410, 411, 417, 418, 424, 431, 586
 614, 615
*Nset, nset=Set-39
 112, 113, 114, 115, 116, 117, 118, 119, 120, 121, 153, 155, 156, 157, 159, 160
 166, 167, 168, 169, 173, 178, 181, 218, 222, 223, 225, 226, 227, 229, 232, 233
 236, 237, 239, 240, 243, 244, 248, 269, 270, 272, 293, 303, 304, 305, 306
*Elset, elset=Set-39
 229, 231, 233, 234, 238, 240, 334, 338, 339, 348, 365, 367, 381, 383, 391, 480
 483, 484, 494, 495, 502, 506, 511, 517, 526, 529, 532, 538, 543, 552, 554, 607
 655, 663, 687, 689, 697, 704, 737, 739, 743, 745, 749, 751
*Nset, nset=mian3
   2,  17,  20,  23,  24,  25,  48,  49,  50,  52,  53,  76, 107
*Elset, elset=mian3
  28,  29,  75,  76,  81,  82,  90, 108, 110, 111, 209, 210, 211, 214, 215, 289
*Nset, nset=mian4
   1,  34,  35,  36,  38,  39,  77,  78,  79,  80,  90, 131, 133
*Elset, elset=mian4
  52,  53, 146, 147, 150, 151, 152, 153, 164, 165, 177, 178, 276, 279, 281, 408
*Nset, nset=mian5
 10, 11, 12, 13, 14, 15, 16, 18, 19, 22, 26, 53, 55
*Elset, elset=mian5
 13, 14, 15, 16, 21, 22, 32, 33, 47, 48, 84, 87, 88, 91, 92, 93
*Nset, nset=mian6
  10,  12,  31,  33,  37,  81,  82,  83,  84, 130, 133, 134
*Elset, elset=mian6
  43,  44, 141, 142, 155, 156, 160, 162, 163, 282, 283, 284, 287, 589
*Nset, nset=mian7
  21,  53,  54,  56,  59,  60,  63,  64, 108, 111, 113, 114, 115, 120, 132, 133
 181, 188, 189, 190, 194, 195, 197, 236, 265, 268, 269, 272, 293, 305
*Elset, elset=mian7
  85,  94, 100, 107, 113, 114, 219, 231, 244, 250, 251, 381, 410, 411, 417, 418
 424, 431, 586, 601, 614, 615, 737, 749
*Nset, nset=mian8
 112, 113, 118, 153, 155, 156, 157, 159, 160, 166, 167, 168, 169, 173, 178, 218
 222, 223, 225, 226, 227, 229, 232, 233, 236, 237, 239, 240, 243, 244, 248
*Elset, elset=mian8
 229, 334, 338, 339, 348, 365, 367, 391, 480, 483, 484, 494, 495, 502, 506, 511
 517, 526, 529, 532, 538, 543, 552, 554, 655, 663, 687, 689, 697, 704
*Nset, nset=mian9
  21,  57,  58,  61,  62, 109, 110, 115, 118, 172, 175, 250
*Elset, elset=mian9
  98, 103, 116, 117, 225, 242, 364, 546, 551, 555
*Nset, nset=Set-47
 132, 191, 192, 193, 196, 227, 228, 266, 267, 269, 286, 289, 314
*Elset, elset=Set-47
 413, 414, 422, 427, 496, 594, 599, 613, 677, 678, 777
*Nset, nset=Set-48
 169, 174, 180, 181
*Elset, elset=Set-48
 377, 550, 564
*Nset, nset=Set-49
 229, 230, 271, 293
*Elset, elset=Set-49
 498, 682, 684
*Nset, nset=Set-50, generate
   1,  331,    1
*Elset, elset=Set-50, generate
   1,  832,    1
** Region: (Section-1:Set-50), (Beam Orientation:Set-28)
*Elset, elset=_I1, internal
   1,   2,   3,   4,   5,   6,   7,   8,   9,  10,  11,  12,  17,  18,  19,  20
  30,  31,  38,  39,  40,  41,  42,  49,  50,  51,  65,  69,  70,  71,  72,  73
  74,  80,  83,  86,  99, 104, 105, 106, 112, 115, 118, 119, 120, 133, 134, 135
 136, 137, 139, 140, 145, 149, 192, 193, 194, 195, 196, 197, 198, 199, 200, 201
 202, 203, 204, 205, 206, 207, 208, 218, 226, 227, 228, 232, 235, 236, 237, 241
 245, 246, 247, 248, 249, 252, 267, 268, 269, 270, 271, 272, 273, 274, 275, 278
 310, 312, 313, 314, 315, 316, 317, 318, 330, 331, 332, 333, 349, 350, 368, 369
 370, 371, 372, 373, 374, 375, 376, 382, 389, 390, 405, 406, 407, 409, 412, 415
 416, 423, 428, 429, 430, 432, 447, 448, 449, 450, 451, 452, 453, 454, 458, 474
 475, 479, 485, 486, 487, 488, 489, 490, 491, 492, 493, 499, 500, 501, 507, 508
 509, 510, 514, 515, 530, 531, 541, 542, 547, 548, 549, 553, 558, 559, 560, 561
 562, 563, 565, 574, 575, 576, 577, 578, 579, 580, 581, 583, 584, 585, 595, 596
 597, 598, 602, 603, 604, 605, 606, 627, 628, 629, 631, 632, 633, 637, 638, 639
 640, 646, 647, 651, 652, 653, 654, 659, 660, 661, 662, 664, 665, 666, 667, 668
 669, 683, 685, 690, 691, 696, 699, 700, 705, 706, 710, 722, 723, 724, 726, 727
 728, 732, 733, 734, 735, 738, 740, 741, 742, 750, 765, 768, 770, 771, 772, 773
 774, 775, 776, 779, 794, 797
** Section: Section-1  Profile: Profile-1
*Beam Section, elset=_I1, material=Material-1, temperature=GRADIENTS, section=CIRC
0.2
0.,0.13,0.99
** Region: (Section-1:Set-50), (Beam Orientation:mian5)
*Elset, elset=_I2, internal
 13, 14, 15, 16, 21, 22, 32, 33, 47, 48, 84, 87, 88, 91, 92, 93
** Section: Section-1  Profile: Profile-1
*Beam Section, elset=_I2, material=Material-1, temperature=GRADIENTS, section=CIRC
0.2
0.7,-0.7,0.
** Region: (Section-1:Set-50), (Beam Orientation:Set-29)
*Elset, elset=_I3, internal
  23,  24,  25,  26,  27,  34,  45,  46,  54,  55,  56,  57,  58,  59,  77,  78
  79,  89,  95,  96,  97, 101, 102, 109, 143, 144, 148, 154, 157, 158, 159, 161
 167, 168, 169, 170, 171, 172, 175, 176, 180, 181, 182, 183, 184, 185, 186, 187
 212, 213, 216, 217, 220, 221, 222, 223, 224, 230, 239, 243, 253, 256, 257, 258
 259, 260, 261, 262, 277, 280, 285, 286, 288, 290, 291, 292, 293, 299, 300, 301
 302, 303, 306, 307, 308, 309, 328, 329, 335, 336, 337, 340, 341, 342, 343, 344
 345, 346, 347, 351, 352, 353, 354, 355, 356, 357, 358, 359, 360, 361, 362, 363
 366, 378, 379, 380, 384, 385, 386, 387, 388, 392, 393, 396, 397, 398, 399, 400
 402, 403, 419, 420, 421, 425, 426, 440, 441, 442, 455, 456, 472, 481, 482, 497
 503, 504, 505, 512, 513, 516, 518, 519, 520, 521, 522, 523, 524, 525, 527, 528
 533, 534, 535, 536, 537, 539, 540, 544, 545, 556, 557, 566, 567, 568, 569, 582
 587, 588, 590, 591, 592, 593, 600, 608, 609, 610, 611, 612, 616, 617, 618, 619
 620, 621, 623, 641, 656, 657, 658, 670, 671, 672, 673, 674, 675, 676, 679, 680
 681, 686, 688, 692, 693, 694, 695, 698, 701, 702, 703, 707, 708, 711, 712, 713
 714, 715, 716, 718, 736, 744, 746, 747, 748, 754, 755, 756, 778, 780, 783, 784
 785, 798, 801, 802, 803, 804, 805, 806, 808, 809, 810, 811, 812, 815, 817, 820
 821, 822, 823, 824, 827, 831
** Section: Section-1  Profile: Profile-1
*Beam Section, elset=_I3, material=Material-1, temperature=GRADIENTS, section=CIRC
0.2
0.,0.13,-0.99
** Region: (Section-1:Set-50), (Beam Orientation:mian3)
*Elset, elset=_I4, internal
  28,  29,  75,  76,  81,  82,  90, 108, 110, 111, 209, 210, 211, 214, 215, 289
** Section: Section-1  Profile: Profile-1
*Beam Section, elset=_I4, material=Material-1, temperature=GRADIENTS, section=CIRC
0.2
0.8,-0.5,0.
** Region: (Section-1:Set-50), (Beam Orientation:Set-31)
*Elset, elset=_I5, internal
  35,  36,  37, 121, 122, 123, 124, 125, 126, 127, 128, 129, 130, 131, 132, 138
 173, 254, 255, 263, 264, 265, 266, 304, 305, 394, 395, 404, 457, 459, 460, 461
 462, 463, 464, 465, 466, 467, 478, 570, 571, 572, 573, 642, 643, 644, 645, 648
 649, 717, 719, 720, 721, 725, 729, 730, 731, 769, 781, 782, 786, 787, 788, 789
 790, 791, 792, 793, 795, 796, 807, 816, 818, 819, 825, 826, 832
** Section: Section-1  Profile: Profile-1
*Beam Section, elset=_I5, material=Material-1, temperature=GRADIENTS, section=CIRC
0.2
0.99,0.13,0.
** Region: (Section-1:Set-50), (Beam Orientation:mian6)
*Elset, elset=_I6, internal
  43,  44, 141, 142, 155, 156, 160, 162, 163, 282, 283, 284, 287, 589
** Section: Section-1  Profile: Profile-1
*Beam Section, elset=_I6, material=Material-1, temperature=GRADIENTS, section=CIRC
0.2
-0.7,-0.7,0.
** Region: (Section-1:Set-50), (Beam Orientation:mian4)
*Elset, elset=_I7, internal
  52,  53, 146, 147, 150, 151, 152, 153, 164, 165, 177, 178, 276, 279, 281, 408
** Section: Section-1  Profile: Profile-1
*Beam Section, elset=_I7, material=Material-1, temperature=GRADIENTS, section=CIRC
0.2
-0.8,-0.5,0.
** Region: (Section-1:Set-50), (Beam Orientation:Set-32)
*Elset, elset=_I8, internal
  60,  61,  62,  63,  64,  66,  67,  68, 166, 174, 179, 188, 189, 190, 191, 294
 295, 296, 297, 298, 311, 319, 320, 321, 322, 323, 324, 325, 326, 327, 401, 433
 434, 435, 436, 437, 438, 439, 443, 444, 445, 446, 468, 469, 470, 471, 473, 476
 477, 622, 624, 625, 626, 630, 634, 635, 636, 650, 752, 753, 757, 758, 759, 760
 761, 762, 763, 764, 766, 767, 799, 800, 813, 814, 828, 829, 830
** Section: Section-1  Profile: Profile-1
*Beam Section, elset=_I8, material=Material-1, temperature=GRADIENTS, section=CIRC
0.2
-0.99,0.13,0.
** Region: (Section-1:Set-50), (Beam Orientation:mian7)
*Elset, elset=_I9, internal
  85,  94, 100, 107, 113, 114, 219, 231, 244, 250, 251, 381, 410, 411, 417, 418
 424, 431, 586, 601, 614, 615, 737, 749
** Section: Section-1  Profile: Profile-1
*Beam Section, elset=_I9, material=Material-1, temperature=GRADIENTS, section=CIRC
0.2
1.,0.,0.
** Region: (Section-1:Set-50), (Beam Orientation:mian9)
*Elset, elset=_I10, internal
  98, 103, 116, 117, 225, 242, 364, 546, 551, 555
** Section: Section-1  Profile: Profile-1
*Beam Section, elset=_I10, material=Material-1, temperature=GRADIENTS, section=CIRC
0.2
0.8,-0.5,0.
** Region: (Section-1:Set-50), (Beam Orientation:mian8)
*Elset, elset=_I11, internal
 229, 334, 338, 339, 348, 365, 367, 391, 480, 483, 484, 494, 495, 502, 506, 511
 517, 526, 529, 532, 538, 543, 552, 554, 655, 663, 687, 689, 697, 704
** Section: Section-1  Profile: Profile-1
*Beam Section, elset=_I11, material=Material-1, temperature=GRADIENTS, section=CIRC
0.2
0.,1.,0.
** Region: (Section-1:Set-50), (Beam Orientation:Set-39)
*Elset, elset=_I12, internal
 233, 234, 238, 240, 383, 607, 739, 743, 745, 751
** Section: Section-1  Profile: Profile-1
*Beam Section, elset=_I12, material=Material-1, temperature=GRADIENTS, section=CIRC
0.2
0.,1.,0.
** Region: (Section-1:Set-50), (Beam Orientation:Set-48)
*Elset, elset=_I13, internal
 377, 550, 564
** Section: Section-1  Profile: Profile-1
*Beam Section, elset=_I13, material=Material-1, temperature=GRADIENTS, section=CIRC
0.2
0.2,0.8,0.
** Region: (Section-1:Set-50), (Beam Orientation:Set-47)
*Elset, elset=_I14, internal
 413, 414, 422, 427, 496, 594, 599, 613, 677, 678, 777
** Section: Section-1  Profile: Profile-1
*Beam Section, elset=_I14, material=Material-1, temperature=GRADIENTS, section=CIRC
0.2
-0.8,-0.5,0.
** Region: (Section-1:Set-50), (Beam Orientation:Set-49)
*Elset, elset=_I15, internal
 498, 682, 684
** Section: Section-1  Profile: Profile-1
*Beam Section, elset=_I15, material=Material-1, temperature=GRADIENTS, section=CIRC
0.2
-0.2,0.8,0.
** Region: (Section-1:Set-50)
*Elset, elset=_I16, internal
 709,
** Section: Section-1  Profile: Profile-1
*Beam Section, elset=_I16, material=Material-1, temperature=GRADIENTS, section=CIRC
0.2
0.,0.,-1.
*End Part
**  
**
** ASSEMBLY
**
*Assembly, name=Assembly
**  
*Instance, name=Part-3-1, part=Part-3
*End Instance
**  
*Nset, nset=Set-1, instance=Part-3-1
 283, 302, 325, 328
*Nset, nset=Set-2, instance=Part-3-1
 291,
*End Assembly
** 
** MATERIALS
** 
*Material, name=Material-1
*Density
7900.,
*Elastic
 2.06e+11, 0.3
** ----------------------------------------------------------------
** 
** STEP: Step-1
** 
*Step, name=Step-1, nlgeom=NO
*Dynamic,direct
1.,100.,
** 
** BOUNDARY CONDITIONS
** 
** Name: BC-1 Type: 对称/反对称/完全固定
*Boundary
Set-1, ENCASTRE
** 
** LOADS
** 
** Name: Load-1   Type: Concentrated force
*Cload
Set-2, 2, 10000.
** 
** OUTPUT REQUESTS
** 
*Restart, write, frequency=0
** 
** FIELD OUTPUT: F-Output-1
** 
*Output, field, variable=PRESELECT, frequency=1
** 
** HISTORY OUTPUT: H-Output-1
** 
*Output, history, variable=PRESELECT, frequency=1
*End Step
